15
int1   Gibbs Energy (298 K): -1818.482185
O         -1.50586       -0.30053        0.61101
O          1.69827       -0.49809        1.47680
O          1.33543        1.59765       -0.11753
O          0.28738       -1.29348       -1.33756
O         -0.77699        0.73287        1.27648
O          0.74376       -1.53281        1.29032
O          0.32501        1.33060       -1.10437
O          1.64654       -0.95350       -1.14859
V          0.50076       -0.09918        0.10300
K          3.65689        0.20069       -0.21944
K         -1.12458        3.06201        0.13364
K         -1.28728       -2.89719        0.04730
C         -2.69984        0.07294       -0.24136
O         -2.97225        1.26310       -0.29376
O         -3.15304       -0.98347       -0.67647
