15
int2   Gibbs Energy (298 K):   -1818.478625
O         -2.17240        1.11266        0.78760
O          1.28589       -0.38610        1.52131
O          1.25813        1.52427       -0.39481
O          0.47258       -1.48971       -1.39967
O         -0.77736        0.99655        1.14474
O          0.40073       -1.46591        1.28872
O          0.24300        1.19552       -1.35886
O          1.73080       -1.02959       -0.99068
V          0.30977       -0.14452       -0.06877
K          3.50008        0.22115        0.21291
K         -0.78745        3.21912       -0.12119
K         -1.01631       -3.16156       -0.00890
C         -2.58800        0.05693        0.01473
O         -3.78518       -0.05712       -0.19005
O         -1.63451       -0.68972       -0.41832
