15
int3    Gibbs Energy (298 K): -1818.485160
O          2.96841        0.57891       -0.46390
O         -0.98177       -0.37621        1.43003
O          0.42250       -2.37398        0.07114
O         -1.50216       -0.01843       -1.48787
O          0.35616        0.09318        1.17885
O         -1.85515        0.73094        1.51403
O          1.13393       -1.76095       -1.00298
O         -1.65527       -1.40202       -1.12434
V         -0.09925       -0.61371       -0.47973
K         -3.68532       -0.47852        0.12183
K          2.83139       -1.47109        1.01587
K         -0.39003        2.73228        0.39412
C          2.03588        1.36305       -0.73712
O          1.99273        2.60634       -0.61465
O          0.83348        0.80548       -1.20633
