15
int5    Gibbs Energy (298 K): -1818.519370
O          2.46044        1.54327        0.65490
O         -2.51454        0.48396        1.25457
O          1.18425       -1.93897       -1.66800
O         -1.57880       -0.11030       -1.18495
O          0.33681       -1.17618        0.83045
O         -2.92085        0.21859        0.05930
O          2.02507       -0.84130       -1.30379
O         -1.30220       -1.46184       -1.33953
V          0.31214       -0.66510       -0.68560
K         -2.13829       -2.15307        1.13201
K          3.18961       -0.80429        1.05864
K         -1.54852        2.66116       -0.17148
C          1.40927        2.02609        0.17469
O          0.97354        3.19712        0.27264
O          0.56278        1.18174       -0.53106
