14
K3VO2CO32    Gibbs Energy (298 K): -1706.592432
O          2.80507       -0.60704        0.50415
O         -1.43786       -0.82411        1.23494
O         -1.71962       -1.83986       -1.15908
O         -1.72159        2.21039        0.08282
V         -0.69011       -1.10580       -0.17661
K         -3.48573        0.29903       -0.32792
K          2.31122        1.38344       -1.34777
K          1.05693        0.09774        2.36888
C          2.07768       -1.23186       -0.32084
O          0.94243       -1.81194        0.23630
O          2.20544       -1.27641       -1.55641
C         -0.57647        1.73665        0.01053
O         -0.43042        0.59440       -0.79478
O          0.49393        2.12717        0.54621
