13
K3VO5CO3 Gibbs Energy (298K):   -1668.278467
O          2.49927        1.92727        0.23748
O         -1.59057        0.30918        1.48095
O         -0.21519       -1.97597       -0.56483
O         -1.29559        0.59331       -1.15509
O         -0.34189        0.99317        1.39912
O         -1.45940       -1.85571        0.12616
V         -0.54373       -0.21798        0.01339
K         -3.63991       -0.40534       -0.04820
K          0.28478        2.82225       -0.56687
K          2.33094       -2.34780       -0.23011
C          2.42457        0.67625        0.23040
O          3.27133       -0.14736        0.65876
O          1.30927        0.11147       -0.38654
