15
ts1    Gibbs Energy (298 K): -1818.460709
O          2.25815       -0.91449        0.45850
O         -1.49223        0.24737        1.49910
O         -1.24624       -1.66753       -0.19860
O         -0.37181        1.30961       -1.34477
O          0.99085       -0.63399        1.04790
O         -0.79536        1.46145        1.29084
O         -0.26483       -1.36597       -1.20345
O         -1.69908        0.83977       -1.14711
V         -0.44644        0.04055        0.02838
K         -3.61478       -0.35902       -0.10686
K          1.02270       -3.14011        0.18077
K          0.72367        3.20663        0.14923
C          2.88149        0.20779       -0.20416
O          4.00155       -0.08886       -0.59518
O          2.17887        1.23491       -0.26568
