15
ts3   Gibbs Energy (298 K): -1818.484441
O          2.85776        0.89008       -0.28533
O         -1.43134       -0.22100        1.59218
O          0.83717       -2.26038        0.22976
O         -1.39907       -0.37089       -1.54962
O         -0.07546        0.14051        1.15430
O         -2.28156        0.88008        1.42497
O          1.46771       -1.63630       -0.90283
O         -1.34644       -1.71753       -1.03391
V          0.03620       -0.67978       -0.45959
K         -3.56326       -0.87636        0.03058
K          3.22683       -1.22649        1.00189
K         -0.75911        2.71237        0.23796
C          1.87402        1.55532       -0.67389
O          1.69566        2.78866       -0.63873
O          0.76784        0.84703       -1.18133
