15
ts4     Gibbs Energy (298 K): -1818.483595
O          1.77097        1.05364        0.41051
O         -1.68436       -0.12222        1.74779
O          1.67099       -1.84928        0.15284
O         -1.08214       -0.84112       -1.51806
O         -0.31809       -0.46112        1.23950
O         -2.50088        0.54439        0.85069
O          1.91465       -1.16661       -1.09038
O         -0.62365       -2.10102       -1.02080
V          0.32978       -0.62070       -0.42581
K         -2.87331       -1.93171        0.26456
K          3.73892       -0.40652        0.71547
K         -1.71246        2.79001       -0.17750
C          1.03144        1.84990       -0.25956
O          0.96003        3.08701       -0.18574
O          0.18203        1.18042       -1.07347
