13
A3VO5CO3   Gibbs Energy (298 K): -1668.281396
O         -0.72530       -0.86533        1.74801
O          1.74544        1.30469        0.10653
O          0.83686       -1.62319       -0.53674
O         -2.92015       -0.37281       -0.82660
O          1.11242        1.14963        1.40471
O          1.64568       -1.58635        0.67636
V          0.30334       -0.27573        0.69770
K          3.17267       -0.46844       -1.07607
K         -1.80393       -2.55596       -0.12771
K         -0.31315        3.01486        0.01738
C         -2.22093        0.65471       -0.69190
O         -0.84507        0.45970       -0.53997
O         -2.56331        1.85798       -0.70157
