15
int2       Gibbs Energy (298 K): -1818.479514
O          0.44073        1.16799        1.46124
O          0.16386       -1.87336       -0.42449
O         -1.31558        0.19750       -1.25656
O         -1.49141       -0.56007        2.02241
O          1.87962        1.16141        1.39562
O          0.79528       -1.68653        0.85960
O         -1.77434        1.09889       -0.20445
O         -2.02075       -1.30765        1.09313
V         -0.39590       -0.27288        0.33773
K         -3.69744       -0.55621       -0.72262
K          0.07887        2.82627       -0.62179
K          2.71109       -1.86297       -0.92267
C          2.29897        0.72727        0.18303
O          1.37726        0.50310       -0.68539
O          3.51459        0.57093        0.01495
