15
int3       Gibbs Energy (298 K): -1818.499098
O         -0.28446       -0.95102        1.33520
O          1.22675        1.70893       -0.70447
O          1.34615       -0.75448       -1.71708
O          0.77324       -1.51418        2.04471
O         -3.24087       -0.59083       -0.18822
O          1.16315        1.26036        0.68647
O          0.55980       -1.75059       -1.03022
O          1.93501       -1.32479        1.50676
V          0.33512       -0.01646       -0.36568
K          3.46548        0.21394       -0.23146
K         -1.77247       -2.66173       -0.23789
K         -0.88234        3.05676        0.26488
C         -2.64820        0.50234       -0.11186
O         -1.35266        0.54886       -0.67423
O         -3.02878        1.59204        0.36191
