15
ts1        Gibbs Energy (298 K): -1818.476417
O          0.54385       -0.75429       -1.54233
O          0.09565        1.42993        1.11726
O         -1.29498       -0.81679        1.05242
O         -1.49546        1.13325       -1.73388
O          1.94687       -0.46964       -1.59856
O          0.71037        1.82228       -0.12977
O         -1.74385       -1.24523       -0.26983
O         -2.05384        1.48212       -0.60404
V         -0.43370        0.28457       -0.22594
K         -3.71071        0.05081        0.80044
K          0.24523       -2.89129        0.06237
K          2.68460        1.55037        1.56719
C          2.49586       -0.49953       -0.34201
O          1.71431       -0.79379        0.61922
O          3.69189       -0.18085       -0.26902
