15
ts2        Gibbs Energy (298 K): -1818.445454
O          0.76010        1.05900        1.15705
O         -1.15000       -1.74945       -0.13580
O         -1.36282        0.50041       -1.62425
O         -0.99059        1.49749        1.94117
O          2.46010        0.77980        0.45180
O         -0.51737       -1.37050        1.12165
O         -0.65635        1.61162       -1.04581
O         -1.84786        0.89592        1.18796
V         -0.33895        0.02407       -0.10358
K         -3.48760       -0.46548       -0.31782
K          1.38389        3.01792       -0.37906
K          1.22191       -3.05878        0.01541
C          2.40240       -0.35807       -0.17448
O          1.28419       -0.59707       -0.86991
O          3.28756       -1.22531       -0.13671
