15
ts4       Gibbs Energy (298 K): -1818.494909
O         -0.37645       -1.02773        1.33633
O          1.30351        1.65724       -0.56851
O          0.74476       -1.00259       -1.54601
O          0.60800       -1.98339        2.23062
O         -3.24407       -0.51386       -0.39467
O          1.17259        1.37142        0.85876
O          1.64458       -1.36373       -0.44433
O          1.72427       -1.49160        2.42505
V          0.39842       -0.02888        0.03886
K          3.06079        0.23977       -1.90833
K         -1.59235       -2.41665       -0.77741
K         -0.87912        3.08385        0.25851
C         -2.62992        0.56106       -0.21497
O         -1.27020        0.56474       -0.52462
O         -3.06989        1.66950        0.16951
