8
K3VO4    Gibbs Energy (298 K): -1329.455422
O         -0.59567        1.39834       -0.63728
O         -0.98870        0.00006        1.65481
V         -0.12138        0.00001        0.23564
K         -2.94239        0.00009       -0.25124
K          1.66658       -2.50283       -0.18677
K          1.66677        2.50271       -0.18677
O          1.60059       -0.00006        0.42610
O         -0.59579       -1.39830       -0.63725
