10
K3VO2O22    Gibbs Energy (298 K): -1479.712314
O         -1.16747       -1.63395        0.16284
O         -2.14608        1.25866       -0.07924
O          0.34982        0.18562        1.58099
O          0.01196        0.55599       -1.06320
O         -2.47856        0.57611        1.16608
V         -0.85136       -0.02698        0.46801
K         -3.57675       -0.86377       -0.73709
K          1.39609       -2.15935        0.35797
K          1.58771        2.10209        0.17011
O          1.31774       -0.09112       -1.16975
